11314400
  -CPSS-  Generated
butane
 14 13  0  0  0  0  0  0  0  0999 V2000
   -2.0200    0.8600    0.0000 C   0  0  0  0  0  0  0  0  0  0  0  0  0  0  0  0
   -0.2800    0.0800    0.0000 C   0  0  0  0  0  0  0  0  0  0  0  0  0  0  0  0
   -3.5400   -0.2500    0.0000 C   0  0  0  0  0  0  0  0  0  0  0  0  0  0  0  0
    1.2600    1.1900    0.0000 C   0  0  0  0  0  0  0  0  0  0  0  0  0  0  0  0
   -2.0200    0.8600    0.0000 H   0  0  0  0  0  0  0  0  0  0  0  0  0  0  0  0
   -2.0200    0.8600    0.0000 H   0  0  0  0  0  0  0  0  0  0  0  0  0  0  0  0
   -2.0200    0.8600    0.0000 H   0  0  0  0  0  0  0  0  0  0  0  0  0  0  0  0
   -0.2800    0.0800    0.0000 H   0  0  0  0  0  0  0  0  0  0  0  0  0  0  0  0
   -0.2800    0.0800    0.0000 H   0  0  0  0  0  0  0  0  0  0  0  0  0  0  0  0
   -3.5400   -0.2500    0.0000 H   0  0  0  0  0  0  0  0  0  0  0  0  0  0  0  0
   -3.5400   -0.2500    0.0000 H   0  0  0  0  0  0  0  0  0  0  0  0  0  0  0  0
    1.2600    1.1900    0.0000 H   0  0  0  0  0  0  0  0  0  0  0  0  0  0  0  0
    1.2600    1.1900    0.0000 H   0  0  0  0  0  0  0  0  0  0  0  0  0  0  0  0
    1.2600    1.1900    0.0000 H   0  0  0  0  0  0  0  0  0  0  0  0  0  0  0  0
  1  2  1  0  0  0  0  0  0  0  0
  2  3  1  0  0  0  0  0  0  0  0
  3  4  1  0  0  0  0  0  0  0  0
  1  5  1  0  0  0  0  0  0  0  0
  1  6  1  0  0  0  0  0  0  0  0
  1  7  1  0  0  0  0  0  0  0  0
  2  8  1  0  0  0  0  0  0  0  0
  2  9  1  0  0  0  0  0  0  0  0
  3 10  1  0  0  0  0  0  0  0  0
  3 11  1  0  0  0  0  0  0  0  0
  4 12  1  0  0  0  0  0  0  0  0
  4 13  1  0  0  0  0  0  0  0  0
  4 14  1  0  0  0  0  0  0  0  0
M  END
10102001
  -CPSS-  Generated
oxygen
  2  1  0  0  0  0  0  0  0  0999 V2000
   -3.3200   -0.1800    0.0000 O   0  0  0  0  0  0  0  0  0  0  0  0  0  0  0  0
   -1.3300    1.1500    0.0000 O   0  0  0  0  0  0  0  0  0  0  0  0  0  0  0  0
  2  1  2  0  0  0  0  0  0  0  0
M  END
21213401
  -CPSS-  Generated
2-butyl-radical
 13 12  0  0  0  0  0  0  0  0999 V2000
   -2.0200    0.8600    0.0000 C   0  0  0  0  0  0  0  0  0  0  0  0  0  0  0  0
   -0.2800    0.0800    0.0000 C   0  4  0  0  0  0  0  0  0  0  0  0  0  0  0  0
   -3.5400   -0.2500    0.0000 C   0  0  0  0  0  0  0  0  0  0  0  0  0  0  0  0
    1.2600    1.1900    0.0000 C   0  0  0  0  0  0  0  0  0  0  0  0  0  0  0  0
   -2.0200    0.8600    0.0000 H   0  0  0  0  0  0  0  0  0  0  0  0  0  0  0  0
   -2.0200    0.8600    0.0000 H   0  0  0  0  0  0  0  0  0  0  0  0  0  0  0  0
   -2.0200    0.8600    0.0000 H   0  0  0  0  0  0  0  0  0  0  0  0  0  0  0  0
   -0.2800    0.0800    0.0000 H   0  0  0  0  0  0  0  0  0  0  0  0  0  0  0  0
   -3.5400   -0.2500    0.0000 H   0  0  0  0  0  0  0  0  0  0  0  0  0  0  0  0
   -3.5400   -0.2500    0.0000 H   0  0  0  0  0  0  0  0  0  0  0  0  0  0  0  0
    1.2600    1.1900    0.0000 H   0  0  0  0  0  0  0  0  0  0  0  0  0  0  0  0
    1.2600    1.1900    0.0000 H   0  0  0  0  0  0  0  0  0  0  0  0  0  0  0  0
    1.2600    1.1900    0.0000 H   0  0  0  0  0  0  0  0  0  0  0  0  0  0  0  0
  1  2  1  0  0  0  0  0  0  0  0
  2  3  1  0  0  0  0  0  0  0  0
  3  4  1  0  0  0  0  0  0  0  0
  1  5  1  0  0  0  0  0  0  0  0
  1  6  1  0  0  0  0  0  0  0  0
  1  7  1  0  0  0  0  0  0  0  0
  2  8  1  0  0  0  0  0  0  0  0
  3  9  1  0  0  0  0  0  0  0  0
  3 10  1  0  0  0  0  0  0  0  0
  4 11  1  0  0  0  0  0  0  0  0
  4 12  1  0  0  0  0  0  0  0  0
  4 13  1  0  0  0  0  0  0  0  0
M  END
20203000
  -CPSS-  Generated
peroxyl-radical
  3  2  0  0  0  0  0  0  0  0999 V2000
   -1.7600    1.1000    0.0000 O   0  0  0  0  0  0  0  0  0  0  0  0  0  0  0  0
   -3.4400   -0.1300    0.0000 H   0  0  0  0  0  0  0  0  0  0  0  0  0  0  0  0
    0.1800    0.2300    0.0000 O   0  4  0  0  0  0  0  0  0  0  0  0  0  0  0  0
  2  1  1  0  0  0  0  0  0  0  0
  3  1  1  0  0  0  0  0  0  0  0
M  END
21213400
  -CPSS-  Generated
1-butyl-radical
 13 12  0  0  0  0  0  0  0  0999 V2000
   -2.0200    0.8600    0.0000 C   0  4  0  0  0  0  0  0  0  0  0  0  0  0  0  0
   -0.2800    0.0800    0.0000 C   0  0  0  0  0  0  0  0  0  0  0  0  0  0  0  0
   -3.5400   -0.2500    0.0000 C   0  0  0  0  0  0  0  0  0  0  0  0  0  0  0  0
    1.2600    1.1900    0.0000 C   0  0  0  0  0  0  0  0  0  0  0  0  0  0  0  0
   -2.0200    0.8600    0.0000 H   0  0  0  0  0  0  0  0  0  0  0  0  0  0  0  0
   -2.0200    0.8600    0.0000 H   0  0  0  0  0  0  0  0  0  0  0  0  0  0  0  0
   -0.2800    0.0800    0.0000 H   0  0  0  0  0  0  0  0  0  0  0  0  0  0  0  0
   -0.2800    0.0800    0.0000 H   0  0  0  0  0  0  0  0  0  0  0  0  0  0  0  0
   -3.5400   -0.2500    0.0000 H   0  0  0  0  0  0  0  0  0  0  0  0  0  0  0  0
   -3.5400   -0.2500    0.0000 H   0  0  0  0  0  0  0  0  0  0  0  0  0  0  0  0
    1.2600    1.1900    0.0000 H   0  0  0  0  0  0  0  0  0  0  0  0  0  0  0  0
    1.2600    1.1900    0.0000 H   0  0  0  0  0  0  0  0  0  0  0  0  0  0  0  0
    1.2600    1.1900    0.0000 H   0  0  0  0  0  0  0  0  0  0  0  0  0  0  0  0
  1  2  1  0  0  0  0  0  0  0  0
  2  3  1  0  0  0  0  0  0  0  0
  3  4  1  0  0  0  0  0  0  0  0
  1  5  1  0  0  0  0  0  0  0  0
  1  6  1  0  0  0  0  0  0  0  0
  2  7  1  0  0  0  0  0  0  0  0
  2  8  1  0  0  0  0  0  0  0  0
  3  9  1  0  0  0  0  0  0  0  0
  3 10  1  0  0  0  0  0  0  0  0
  4 11  1  0  0  0  0  0  0  0  0
  4 12  1  0  0  0  0  0  0  0  0
  4 13  1  0  0  0  0  0  0  0  0
M  END
21415400
  -CPSS-  Generated
1-butylperoxy-radical
 15 14  0  0  0  0  0  0  0  0999 V2000
   90.0000  132.0000    0.0000 C   0  0  0  0  0  0  0  0  0  0  0  0  0  0  0  0
  128.9711  154.5000    0.0000 C   0  0  0  0  0  0  0  0  0  0  0  0  0  0  0  0
  167.9423  132.0000    0.0000 C   0  0  0  0  0  0  0  0  0  0  0  0  0  0  0  0
  115.0211  178.6621    0.0000 O   0  0  0  0  0  0  0  0  0  0  0  0  0  0  0  0
  137.5211  217.6332    0.0000 O   0  4  0  0  0  0  0  0  0  0  0  0  0  0  0  0
  206.9134  154.5000    0.0000 C   0  0  0  0  0  0  0  0  0  0  0  0  0  0  0  0
   90.0000  132.0000    0.0000 H   0  0  0  0  0  0  0  0  0  0  0  0  0  0  0  0
   90.0000  132.0000    0.0000 H   0  0  0  0  0  0  0  0  0  0  0  0  0  0  0  0
  128.9711  154.5000    0.0000 H   0  0  0  0  0  0  0  0  0  0  0  0  0  0  0  0
  128.9711  154.5000    0.0000 H   0  0  0  0  0  0  0  0  0  0  0  0  0  0  0  0
  167.9423  132.0000    0.0000 H   0  0  0  0  0  0  0  0  0  0  0  0  0  0  0  0
  167.9423  132.0000    0.0000 H   0  0  0  0  0  0  0  0  0  0  0  0  0  0  0  0
  206.9134  154.5000    0.0000 H   0  0  0  0  0  0  0  0  0  0  0  0  0  0  0  0
  206.9134  154.5000    0.0000 H   0  0  0  0  0  0  0  0  0  0  0  0  0  0  0  0
  206.9134  154.5000    0.0000 H   0  0  0  0  0  0  0  0  0  0  0  0  0  0  0  0
  1  2  1  0  0  0  0  0  0  0  0
  2  3  1  0  0  0  0  0  0  0  0
  1  4  1  0  0  0  0  0  0  0  0
  4  5  1  0  0  0  0  0  0  0  0
  3  6  1  0  0  0  0  0  0  0  0
  1  7  1  0  0  0  0  0  0  0  0
  1  8  1  0  0  0  0  0  0  0  0
  2  9  1  0  0  0  0  0  0  0  0
  2 10  1  0  0  0  0  0  0  0  0
  3 11  1  0  0  0  0  0  0  0  0
  3 12  1  0  0  0  0  0  0  0  0
  6 13  1  0  0  0  0  0  0  0  0
  6 14  1  0  0  0  0  0  0  0  0
  6 15  1  0  0  0  0  0  0  0  0
M  END
21415401
  -CPSS-  Generated
2-butylperoxy-radical
 15 14  0  0  0  0  0  0  0  0999 V2000
   90.0000  132.0000    0.0000 C   0  0  0  0  0  0  0  0  0  0  0  0  0  0  0  0
  128.9711  154.5000    0.0000 C   0  0  0  0  0  0  0  0  0  0  0  0  0  0  0  0
  167.9423  132.0000    0.0000 C   0  0  0  0  0  0  0  0  0  0  0  0  0  0  0  0
  115.0211  178.6621    0.0000 O   0  0  0  0  0  0  0  0  0  0  0  0  0  0  0  0
  137.5211  217.6332    0.0000 O   0  4  0  0  0  0  0  0  0  0  0  0  0  0  0  0
  206.9134  154.5000    0.0000 C   0  0  0  0  0  0  0  0  0  0  0  0  0  0  0  0
   90.0000  132.0000    0.0000 H   0  0  0  0  0  0  0  0  0  0  0  0  0  0  0  0
   90.0000  132.0000    0.0000 H   0  0  0  0  0  0  0  0  0  0  0  0  0  0  0  0
   90.0000  132.0000    0.0000 H   0  0  0  0  0  0  0  0  0  0  0  0  0  0  0  0
  128.9711  154.5000    0.0000 H   0  0  0  0  0  0  0  0  0  0  0  0  0  0  0  0
  167.9423  132.0000    0.0000 H   0  0  0  0  0  0  0  0  0  0  0  0  0  0  0  0
  167.9423  132.0000    0.0000 H   0  0  0  0  0  0  0  0  0  0  0  0  0  0  0  0
  206.9134  154.5000    0.0000 H   0  0  0  0  0  0  0  0  0  0  0  0  0  0  0  0
  206.9134  154.5000    0.0000 H   0  0  0  0  0  0  0  0  0  0  0  0  0  0  0  0
  206.9134  154.5000    0.0000 H   0  0  0  0  0  0  0  0  0  0  0  0  0  0  0  0
  1  2  1  0  0  0  0  0  0  0  0
  2  3  1  0  0  0  0  0  0  0  0
  2  4  1  0  0  0  0  0  0  0  0
  4  5  1  0  0  0  0  0  0  0  0
  3  6  1  0  0  0  0  0  0  0  0
  1  7  1  0  0  0  0  0  0  0  0
  1  8  1  0  0  0  0  0  0  0  0
  1  9  1  0  0  0  0  0  0  0  0
  2 10  1  0  0  0  0  0  0  0  0
  3 11  1  0  0  0  0  0  0  0  0
  3 12  1  0  0  0  0  0  0  0  0
  6 13  1  0  0  0  0  0  0  0  0
  6 14  1  0  0  0  0  0  0  0  0
  6 15  1  0  0  0  0  0  0  0  0
M  END
