11920600
  -CPSS-  Generated
hexane
 20 19  0  0  0  0  0  0  0  0999 V2000
   69.0000  121.0000    0.0000 C   0  0  0  0  0  0  0  0  0  0  0  0  0  0  0  0
  107.9711  143.5000    0.0000 C   0  0  0  0  0  0  0  0  0  0  0  0  0  0  0  0
  146.9423  121.0000    0.0000 C   0  0  0  0  0  0  0  0  0  0  0  0  0  0  0  0
  185.9134  143.5000    0.0000 C   0  0  0  0  0  0  0  0  0  0  0  0  0  0  0  0
  224.8846  121.0000    0.0000 C   0  0  0  0  0  0  0  0  0  0  0  0  0  0  0  0
  263.8557  143.5000    0.0000 C   0  0  0  0  0  0  0  0  0  0  0  0  0  0  0  0
   69.0000  121.0000    0.0000 H   0  0  0  0  0  0  0  0  0  0  0  0  0  0  0  0
   69.0000  121.0000    0.0000 H   0  0  0  0  0  0  0  0  0  0  0  0  0  0  0  0
   69.0000  121.0000    0.0000 H   0  0  0  0  0  0  0  0  0  0  0  0  0  0  0  0
  107.9711  143.5000    0.0000 H   0  0  0  0  0  0  0  0  0  0  0  0  0  0  0  0
  107.9711  143.5000    0.0000 H   0  0  0  0  0  0  0  0  0  0  0  0  0  0  0  0
  146.9423  121.0000    0.0000 H   0  0  0  0  0  0  0  0  0  0  0  0  0  0  0  0
  146.9423  121.0000    0.0000 H   0  0  0  0  0  0  0  0  0  0  0  0  0  0  0  0
  185.9134  143.5000    0.0000 H   0  0  0  0  0  0  0  0  0  0  0  0  0  0  0  0
  185.9134  143.5000    0.0000 H   0  0  0  0  0  0  0  0  0  0  0  0  0  0  0  0
  224.8846  121.0000    0.0000 H   0  0  0  0  0  0  0  0  0  0  0  0  0  0  0  0
  224.8846  121.0000    0.0000 H   0  0  0  0  0  0  0  0  0  0  0  0  0  0  0  0
  263.8557  143.5000    0.0000 H   0  0  0  0  0  0  0  0  0  0  0  0  0  0  0  0
  263.8557  143.5000    0.0000 H   0  0  0  0  0  0  0  0  0  0  0  0  0  0  0  0
  263.8557  143.5000    0.0000 H   0  0  0  0  0  0  0  0  0  0  0  0  0  0  0  0
  1  2  1  0  0  0  0  0  0  0  0
  2  3  1  0  0  0  0  0  0  0  0
  3  4  1  0  0  0  0  0  0  0  0
  4  5  1  0  0  0  0  0  0  0  0
  5  6  1  0  0  0  0  0  0  0  0
  1  7  1  0  0  0  0  0  0  0  0
  1  8  1  0  0  0  0  0  0  0  0
  1  9  1  0  0  0  0  0  0  0  0
  2 10  1  0  0  0  0  0  0  0  0
  2 11  1  0  0  0  0  0  0  0  0
  3 12  1  0  0  0  0  0  0  0  0
  3 13  1  0  0  0  0  0  0  0  0
  4 14  1  0  0  0  0  0  0  0  0
  4 15  1  0  0  0  0  0  0  0  0
  5 16  1  0  0  0  0  0  0  0  0
  5 17  1  0  0  0  0  0  0  0  0
  6 18  1  0  0  0  0  0  0  0  0
  6 19  1  0  0  0  0  0  0  0  0
  6 20  1  0  0  0  0  0  0  0  0
M  END
10102001
  -CPSS-  Generated
oxygen
  2  1  0  0  0  0  0  0  0  0999 V2000
   -3.3200   -0.1800    0.0000 O   0  0  0  0  0  0  0  0  0  0  0  0  0  0  0  0
   -1.3300    1.1500    0.0000 O   0  0  0  0  0  0  0  0  0  0  0  0  0  0  0  0
  2  1  2  0  0  0  0  0  0  0  0
M  END
2
  -CPSS-  Generated
PP2
 19 18  0  0  0  0  0  0  0  0999 V2000
    0.0000    0.0000    0.0000 C   0  0  0  0  0  0  0  0  0  0  0  0  0  0  0  0
    0.0000    0.0000    0.0000 C   0  4  0  0  0  0  0  0  0  0  0  0  0  0  0  0
    0.0000    0.0000    0.0000 H   0  0  0  0  0  0  0  0  0  0  0  0  0  0  0  0
    0.0000    0.0000    0.0000 H   0  0  0  0  0  0  0  0  0  0  0  0  0  0  0  0
    0.0000    0.0000    0.0000 H   0  0  0  0  0  0  0  0  0  0  0  0  0  0  0  0
    0.0000    0.0000    0.0000 C   0  0  0  0  0  0  0  0  0  0  0  0  0  0  0  0
    0.0000    0.0000    0.0000 H   0  0  0  0  0  0  0  0  0  0  0  0  0  0  0  0
    0.0000    0.0000    0.0000 C   0  0  0  0  0  0  0  0  0  0  0  0  0  0  0  0
    0.0000    0.0000    0.0000 H   0  0  0  0  0  0  0  0  0  0  0  0  0  0  0  0
    0.0000    0.0000    0.0000 H   0  0  0  0  0  0  0  0  0  0  0  0  0  0  0  0
    0.0000    0.0000    0.0000 C   0  0  0  0  0  0  0  0  0  0  0  0  0  0  0  0
    0.0000    0.0000    0.0000 H   0  0  0  0  0  0  0  0  0  0  0  0  0  0  0  0
    0.0000    0.0000    0.0000 H   0  0  0  0  0  0  0  0  0  0  0  0  0  0  0  0
    0.0000    0.0000    0.0000 C   0  0  0  0  0  0  0  0  0  0  0  0  0  0  0  0
    0.0000    0.0000    0.0000 H   0  0  0  0  0  0  0  0  0  0  0  0  0  0  0  0
    0.0000    0.0000    0.0000 H   0  0  0  0  0  0  0  0  0  0  0  0  0  0  0  0
    0.0000    0.0000    0.0000 H   0  0  0  0  0  0  0  0  0  0  0  0  0  0  0  0
    0.0000    0.0000    0.0000 H   0  0  0  0  0  0  0  0  0  0  0  0  0  0  0  0
    0.0000    0.0000    0.0000 H   0  0  0  0  0  0  0  0  0  0  0  0  0  0  0  0
  1  2  1  0  0  0  0  0  0  0  0
  1  3  1  0  0  0  0  0  0  0  0
  1  4  1  0  0  0  0  0  0  0  0
  1  5  1  0  0  0  0  0  0  0  0
  2  6  1  0  0  0  0  0  0  0  0
  2  7  1  0  0  0  0  0  0  0  0
  6  8  1  0  0  0  0  0  0  0  0
  6  9  1  0  0  0  0  0  0  0  0
  6 10  1  0  0  0  0  0  0  0  0
  8 11  1  0  0  0  0  0  0  0  0
  8 12  1  0  0  0  0  0  0  0  0
  8 13  1  0  0  0  0  0  0  0  0
 11 14  1  0  0  0  0  0  0  0  0
 11 15  1  0  0  0  0  0  0  0  0
 11 16  1  0  0  0  0  0  0  0  0
 14 17  1  0  0  0  0  0  0  0  0
 14 18  1  0  0  0  0  0  0  0  0
 14 19  1  0  0  0  0  0  0  0  0
M  END
20203000
  -CPSS-  Generated
peroxyl-radical
  3  2  0  0  0  0  0  0  0  0999 V2000
   -1.7600    1.1000    0.0000 O   0  0  0  0  0  0  0  0  0  0  0  0  0  0  0  0
   -3.4400   -0.1300    0.0000 H   0  0  0  0  0  0  0  0  0  0  0  0  0  0  0  0
    0.1800    0.2300    0.0000 O   0  4  0  0  0  0  0  0  0  0  0  0  0  0  0  0
  2  1  1  0  0  0  0  0  0  0  0
  3  1  1  0  0  0  0  0  0  0  0
M  END
4
  -CPSS-  Generated
PP4
 19 18  0  0  0  0  0  0  0  0999 V2000
    0.0000    0.0000    0.0000 C   0  0  0  0  0  0  0  0  0  0  0  0  0  0  0  0
    0.0000    0.0000    0.0000 C   0  0  0  0  0  0  0  0  0  0  0  0  0  0  0  0
    0.0000    0.0000    0.0000 H   0  0  0  0  0  0  0  0  0  0  0  0  0  0  0  0
    0.0000    0.0000    0.0000 H   0  0  0  0  0  0  0  0  0  0  0  0  0  0  0  0
    0.0000    0.0000    0.0000 H   0  0  0  0  0  0  0  0  0  0  0  0  0  0  0  0
    0.0000    0.0000    0.0000 C   0  4  0  0  0  0  0  0  0  0  0  0  0  0  0  0
    0.0000    0.0000    0.0000 H   0  0  0  0  0  0  0  0  0  0  0  0  0  0  0  0
    0.0000    0.0000    0.0000 H   0  0  0  0  0  0  0  0  0  0  0  0  0  0  0  0
    0.0000    0.0000    0.0000 C   0  0  0  0  0  0  0  0  0  0  0  0  0  0  0  0
    0.0000    0.0000    0.0000 H   0  0  0  0  0  0  0  0  0  0  0  0  0  0  0  0
    0.0000    0.0000    0.0000 C   0  0  0  0  0  0  0  0  0  0  0  0  0  0  0  0
    0.0000    0.0000    0.0000 H   0  0  0  0  0  0  0  0  0  0  0  0  0  0  0  0
    0.0000    0.0000    0.0000 H   0  0  0  0  0  0  0  0  0  0  0  0  0  0  0  0
    0.0000    0.0000    0.0000 C   0  0  0  0  0  0  0  0  0  0  0  0  0  0  0  0
    0.0000    0.0000    0.0000 H   0  0  0  0  0  0  0  0  0  0  0  0  0  0  0  0
    0.0000    0.0000    0.0000 H   0  0  0  0  0  0  0  0  0  0  0  0  0  0  0  0
    0.0000    0.0000    0.0000 H   0  0  0  0  0  0  0  0  0  0  0  0  0  0  0  0
    0.0000    0.0000    0.0000 H   0  0  0  0  0  0  0  0  0  0  0  0  0  0  0  0
    0.0000    0.0000    0.0000 H   0  0  0  0  0  0  0  0  0  0  0  0  0  0  0  0
  1  2  1  0  0  0  0  0  0  0  0
  1  3  1  0  0  0  0  0  0  0  0
  1  4  1  0  0  0  0  0  0  0  0
  1  5  1  0  0  0  0  0  0  0  0
  2  6  1  0  0  0  0  0  0  0  0
  2  7  1  0  0  0  0  0  0  0  0
  2  8  1  0  0  0  0  0  0  0  0
  6  9  1  0  0  0  0  0  0  0  0
  6 10  1  0  0  0  0  0  0  0  0
  9 11  1  0  0  0  0  0  0  0  0
  9 12  1  0  0  0  0  0  0  0  0
  9 13  1  0  0  0  0  0  0  0  0
 11 14  1  0  0  0  0  0  0  0  0
 11 15  1  0  0  0  0  0  0  0  0
 11 16  1  0  0  0  0  0  0  0  0
 14 17  1  0  0  0  0  0  0  0  0
 14 18  1  0  0  0  0  0  0  0  0
 14 19  1  0  0  0  0  0  0  0  0
M  END
5
  -CPSS-  Generated
PP5
 19 18  0  0  0  0  0  0  0  0999 V2000
    0.0000    0.0000    0.0000 C   0  4  0  0  0  0  0  0  0  0  0  0  0  0  0  0
    0.0000    0.0000    0.0000 C   0  0  0  0  0  0  0  0  0  0  0  0  0  0  0  0
    0.0000    0.0000    0.0000 H   0  0  0  0  0  0  0  0  0  0  0  0  0  0  0  0
    0.0000    0.0000    0.0000 H   0  0  0  0  0  0  0  0  0  0  0  0  0  0  0  0
    0.0000    0.0000    0.0000 C   0  0  0  0  0  0  0  0  0  0  0  0  0  0  0  0
    0.0000    0.0000    0.0000 H   0  0  0  0  0  0  0  0  0  0  0  0  0  0  0  0
    0.0000    0.0000    0.0000 H   0  0  0  0  0  0  0  0  0  0  0  0  0  0  0  0
    0.0000    0.0000    0.0000 C   0  0  0  0  0  0  0  0  0  0  0  0  0  0  0  0
    0.0000    0.0000    0.0000 H   0  0  0  0  0  0  0  0  0  0  0  0  0  0  0  0
    0.0000    0.0000    0.0000 H   0  0  0  0  0  0  0  0  0  0  0  0  0  0  0  0
    0.0000    0.0000    0.0000 C   0  0  0  0  0  0  0  0  0  0  0  0  0  0  0  0
    0.0000    0.0000    0.0000 H   0  0  0  0  0  0  0  0  0  0  0  0  0  0  0  0
    0.0000    0.0000    0.0000 H   0  0  0  0  0  0  0  0  0  0  0  0  0  0  0  0
    0.0000    0.0000    0.0000 C   0  0  0  0  0  0  0  0  0  0  0  0  0  0  0  0
    0.0000    0.0000    0.0000 H   0  0  0  0  0  0  0  0  0  0  0  0  0  0  0  0
    0.0000    0.0000    0.0000 H   0  0  0  0  0  0  0  0  0  0  0  0  0  0  0  0
    0.0000    0.0000    0.0000 H   0  0  0  0  0  0  0  0  0  0  0  0  0  0  0  0
    0.0000    0.0000    0.0000 H   0  0  0  0  0  0  0  0  0  0  0  0  0  0  0  0
    0.0000    0.0000    0.0000 H   0  0  0  0  0  0  0  0  0  0  0  0  0  0  0  0
  1  2  1  0  0  0  0  0  0  0  0
  1  3  1  0  0  0  0  0  0  0  0
  1  4  1  0  0  0  0  0  0  0  0
  2  5  1  0  0  0  0  0  0  0  0
  2  6  1  0  0  0  0  0  0  0  0
  2  7  1  0  0  0  0  0  0  0  0
  5  8  1  0  0  0  0  0  0  0  0
  5  9  1  0  0  0  0  0  0  0  0
  5 10  1  0  0  0  0  0  0  0  0
  8 11  1  0  0  0  0  0  0  0  0
  8 12  1  0  0  0  0  0  0  0  0
  8 13  1  0  0  0  0  0  0  0  0
 11 14  1  0  0  0  0  0  0  0  0
 11 15  1  0  0  0  0  0  0  0  0
 11 16  1  0  0  0  0  0  0  0  0
 14 17  1  0  0  0  0  0  0  0  0
 14 18  1  0  0  0  0  0  0  0  0
 14 19  1  0  0  0  0  0  0  0  0
M  END
6
  -CPSS-  Generated
PP6
 21 20  0  0  0  0  0  0  0  0999 V2000
    0.0000    0.0000    0.0000 C   0  0  0  0  0  0  0  0  0  0  0  0  0  0  0  0
    0.0000    0.0000    0.0000 C   0  0  0  0  0  0  0  0  0  0  0  0  0  0  0  0
    0.0000    0.0000    0.0000 H   0  0  0  0  0  0  0  0  0  0  0  0  0  0  0  0
    0.0000    0.0000    0.0000 H   0  0  0  0  0  0  0  0  0  0  0  0  0  0  0  0
    0.0000    0.0000    0.0000 O   0  0  0  0  0  0  0  0  0  0  0  0  0  0  0  0
    0.0000    0.0000    0.0000 O   0  4  0  0  0  0  0  0  0  0  0  0  0  0  0  0
    0.0000    0.0000    0.0000 C   0  0  0  0  0  0  0  0  0  0  0  0  0  0  0  0
    0.0000    0.0000    0.0000 H   0  0  0  0  0  0  0  0  0  0  0  0  0  0  0  0
    0.0000    0.0000    0.0000 H   0  0  0  0  0  0  0  0  0  0  0  0  0  0  0  0
    0.0000    0.0000    0.0000 C   0  0  0  0  0  0  0  0  0  0  0  0  0  0  0  0
    0.0000    0.0000    0.0000 H   0  0  0  0  0  0  0  0  0  0  0  0  0  0  0  0
    0.0000    0.0000    0.0000 H   0  0  0  0  0  0  0  0  0  0  0  0  0  0  0  0
    0.0000    0.0000    0.0000 C   0  0  0  0  0  0  0  0  0  0  0  0  0  0  0  0
    0.0000    0.0000    0.0000 H   0  0  0  0  0  0  0  0  0  0  0  0  0  0  0  0
    0.0000    0.0000    0.0000 H   0  0  0  0  0  0  0  0  0  0  0  0  0  0  0  0
    0.0000    0.0000    0.0000 C   0  0  0  0  0  0  0  0  0  0  0  0  0  0  0  0
    0.0000    0.0000    0.0000 H   0  0  0  0  0  0  0  0  0  0  0  0  0  0  0  0
    0.0000    0.0000    0.0000 H   0  0  0  0  0  0  0  0  0  0  0  0  0  0  0  0
    0.0000    0.0000    0.0000 H   0  0  0  0  0  0  0  0  0  0  0  0  0  0  0  0
    0.0000    0.0000    0.0000 H   0  0  0  0  0  0  0  0  0  0  0  0  0  0  0  0
    0.0000    0.0000    0.0000 H   0  0  0  0  0  0  0  0  0  0  0  0  0  0  0  0
  1  2  1  0  0  0  0  0  0  0  0
  1  3  1  0  0  0  0  0  0  0  0
  1  4  1  0  0  0  0  0  0  0  0
  1  5  1  0  0  0  0  0  0  0  0
  2  7  1  0  0  0  0  0  0  0  0
  2  8  1  0  0  0  0  0  0  0  0
  2  9  1  0  0  0  0  0  0  0  0
  5  6  1  0  0  0  0  0  0  0  0
  7 10  1  0  0  0  0  0  0  0  0
  7 11  1  0  0  0  0  0  0  0  0
  7 12  1  0  0  0  0  0  0  0  0
 10 13  1  0  0  0  0  0  0  0  0
 10 14  1  0  0  0  0  0  0  0  0
 10 15  1  0  0  0  0  0  0  0  0
 13 16  1  0  0  0  0  0  0  0  0
 13 17  1  0  0  0  0  0  0  0  0
 13 18  1  0  0  0  0  0  0  0  0
 16 19  1  0  0  0  0  0  0  0  0
 16 20  1  0  0  0  0  0  0  0  0
 16 21  1  0  0  0  0  0  0  0  0
M  END
7
  -CPSS-  Generated
PP7
 21 20  0  0  0  0  0  0  0  0999 V2000
    0.0000    0.0000    0.0000 C   0  0  0  0  0  0  0  0  0  0  0  0  0  0  0  0
    0.0000    0.0000    0.0000 C   0  0  0  0  0  0  0  0  0  0  0  0  0  0  0  0
    0.0000    0.0000    0.0000 H   0  0  0  0  0  0  0  0  0  0  0  0  0  0  0  0
    0.0000    0.0000    0.0000 H   0  0  0  0  0  0  0  0  0  0  0  0  0  0  0  0
    0.0000    0.0000    0.0000 H   0  0  0  0  0  0  0  0  0  0  0  0  0  0  0  0
    0.0000    0.0000    0.0000 C   0  0  0  0  0  0  0  0  0  0  0  0  0  0  0  0
    0.0000    0.0000    0.0000 H   0  0  0  0  0  0  0  0  0  0  0  0  0  0  0  0
    0.0000    0.0000    0.0000 O   0  0  0  0  0  0  0  0  0  0  0  0  0  0  0  0
    0.0000    0.0000    0.0000 O   0  4  0  0  0  0  0  0  0  0  0  0  0  0  0  0
    0.0000    0.0000    0.0000 C   0  0  0  0  0  0  0  0  0  0  0  0  0  0  0  0
    0.0000    0.0000    0.0000 H   0  0  0  0  0  0  0  0  0  0  0  0  0  0  0  0
    0.0000    0.0000    0.0000 H   0  0  0  0  0  0  0  0  0  0  0  0  0  0  0  0
    0.0000    0.0000    0.0000 C   0  0  0  0  0  0  0  0  0  0  0  0  0  0  0  0
    0.0000    0.0000    0.0000 H   0  0  0  0  0  0  0  0  0  0  0  0  0  0  0  0
    0.0000    0.0000    0.0000 H   0  0  0  0  0  0  0  0  0  0  0  0  0  0  0  0
    0.0000    0.0000    0.0000 C   0  0  0  0  0  0  0  0  0  0  0  0  0  0  0  0
    0.0000    0.0000    0.0000 H   0  0  0  0  0  0  0  0  0  0  0  0  0  0  0  0
    0.0000    0.0000    0.0000 H   0  0  0  0  0  0  0  0  0  0  0  0  0  0  0  0
    0.0000    0.0000    0.0000 H   0  0  0  0  0  0  0  0  0  0  0  0  0  0  0  0
    0.0000    0.0000    0.0000 H   0  0  0  0  0  0  0  0  0  0  0  0  0  0  0  0
    0.0000    0.0000    0.0000 H   0  0  0  0  0  0  0  0  0  0  0  0  0  0  0  0
  1  2  1  0  0  0  0  0  0  0  0
  1  3  1  0  0  0  0  0  0  0  0
  1  4  1  0  0  0  0  0  0  0  0
  1  5  1  0  0  0  0  0  0  0  0
  2  6  1  0  0  0  0  0  0  0  0
  2  7  1  0  0  0  0  0  0  0  0
  2  8  1  0  0  0  0  0  0  0  0
  6 10  1  0  0  0  0  0  0  0  0
  6 11  1  0  0  0  0  0  0  0  0
  6 12  1  0  0  0  0  0  0  0  0
  8  9  1  0  0  0  0  0  0  0  0
 10 13  1  0  0  0  0  0  0  0  0
 10 14  1  0  0  0  0  0  0  0  0
 10 15  1  0  0  0  0  0  0  0  0
 13 16  1  0  0  0  0  0  0  0  0
 13 17  1  0  0  0  0  0  0  0  0
 13 18  1  0  0  0  0  0  0  0  0
 16 19  1  0  0  0  0  0  0  0  0
 16 20  1  0  0  0  0  0  0  0  0
 16 21  1  0  0  0  0  0  0  0  0
M  END
8
  -CPSS-  Generated
PP8
 21 20  0  0  0  0  0  0  0  0999 V2000
    0.0000    0.0000    0.0000 C   0  0  0  0  0  0  0  0  0  0  0  0  0  0  0  0
    0.0000    0.0000    0.0000 C   0  0  0  0  0  0  0  0  0  0  0  0  0  0  0  0
    0.0000    0.0000    0.0000 H   0  0  0  0  0  0  0  0  0  0  0  0  0  0  0  0
    0.0000    0.0000    0.0000 H   0  0  0  0  0  0  0  0  0  0  0  0  0  0  0  0
    0.0000    0.0000    0.0000 H   0  0  0  0  0  0  0  0  0  0  0  0  0  0  0  0
    0.0000    0.0000    0.0000 C   0  0  0  0  0  0  0  0  0  0  0  0  0  0  0  0
    0.0000    0.0000    0.0000 H   0  0  0  0  0  0  0  0  0  0  0  0  0  0  0  0
    0.0000    0.0000    0.0000 H   0  0  0  0  0  0  0  0  0  0  0  0  0  0  0  0
    0.0000    0.0000    0.0000 C   0  0  0  0  0  0  0  0  0  0  0  0  0  0  0  0
    0.0000    0.0000    0.0000 H   0  0  0  0  0  0  0  0  0  0  0  0  0  0  0  0
    0.0000    0.0000    0.0000 O   0  0  0  0  0  0  0  0  0  0  0  0  0  0  0  0
    0.0000    0.0000    0.0000 O   0  4  0  0  0  0  0  0  0  0  0  0  0  0  0  0
    0.0000    0.0000    0.0000 C   0  0  0  0  0  0  0  0  0  0  0  0  0  0  0  0
    0.0000    0.0000    0.0000 H   0  0  0  0  0  0  0  0  0  0  0  0  0  0  0  0
    0.0000    0.0000    0.0000 H   0  0  0  0  0  0  0  0  0  0  0  0  0  0  0  0
    0.0000    0.0000    0.0000 C   0  0  0  0  0  0  0  0  0  0  0  0  0  0  0  0
    0.0000    0.0000    0.0000 H   0  0  0  0  0  0  0  0  0  0  0  0  0  0  0  0
    0.0000    0.0000    0.0000 H   0  0  0  0  0  0  0  0  0  0  0  0  0  0  0  0
    0.0000    0.0000    0.0000 H   0  0  0  0  0  0  0  0  0  0  0  0  0  0  0  0
    0.0000    0.0000    0.0000 H   0  0  0  0  0  0  0  0  0  0  0  0  0  0  0  0
    0.0000    0.0000    0.0000 H   0  0  0  0  0  0  0  0  0  0  0  0  0  0  0  0
  1  2  1  0  0  0  0  0  0  0  0
  1  3  1  0  0  0  0  0  0  0  0
  1  4  1  0  0  0  0  0  0  0  0
  1  5  1  0  0  0  0  0  0  0  0
  2  6  1  0  0  0  0  0  0  0  0
  2  7  1  0  0  0  0  0  0  0  0
  2  8  1  0  0  0  0  0  0  0  0
  6  9  1  0  0  0  0  0  0  0  0
  6 10  1  0  0  0  0  0  0  0  0
  6 11  1  0  0  0  0  0  0  0  0
  9 13  1  0  0  0  0  0  0  0  0
  9 14  1  0  0  0  0  0  0  0  0
  9 15  1  0  0  0  0  0  0  0  0
 11 12  1  0  0  0  0  0  0  0  0
 13 16  1  0  0  0  0  0  0  0  0
 13 17  1  0  0  0  0  0  0  0  0
 13 18  1  0  0  0  0  0  0  0  0
 16 19  1  0  0  0  0  0  0  0  0
 16 20  1  0  0  0  0  0  0  0  0
 16 21  1  0  0  0  0  0  0  0  0
M  END
